Version 4
SHEET 1 3044 680
WIRE -272 -112 -352 -112
WIRE -96 -112 -208 -112
WIRE -48 -112 -96 -112
WIRE 0 -112 -48 -112
WIRE 96 -112 0 -112
WIRE 464 -112 384 -112
WIRE 832 -112 464 -112
WIRE 1168 -112 832 -112
WIRE 0 -96 0 -112
WIRE 464 -96 464 -112
WIRE -352 -80 -352 -112
WIRE 1168 -48 1168 -112
WIRE 96 -16 32 -16
WIRE 464 -16 464 -32
WIRE 464 -16 384 -16
WIRE 576 -16 464 -16
WIRE 720 -16 640 -16
WIRE -96 0 -96 -48
WIRE -48 0 -48 -112
WIRE 832 0 832 -48
WIRE -352 16 -352 -16
WIRE 1168 48 1168 32
WIRE 1168 48 880 48
WIRE 0 64 0 -16
WIRE 32 64 32 -16
WIRE 32 64 0 64
WIRE 1168 64 1168 48
WIRE 96 80 -48 80
WIRE 880 80 880 48
WIRE 880 80 384 80
WIRE 0 112 0 64
WIRE 640 176 384 176
WIRE 720 176 720 -16
WIRE 720 176 640 176
WIRE 832 176 720 176
WIRE 912 176 832 176
WIRE 1168 176 1168 144
WIRE 1168 176 1104 176
WIRE 1264 176 1168 176
WIRE -48 192 -48 160
WIRE 912 192 912 176
WIRE 1056 192 912 192
WIRE 1104 192 1104 176
WIRE 1104 192 1056 192
WIRE 1264 192 1264 176
WIRE 0 240 0 192
WIRE 640 256 640 176
WIRE 832 272 832 240
WIRE 1264 272 1264 256
WIRE 1056 320 1056 256
WIRE 96 368 -32 368
WIRE 640 368 640 336
WIRE 640 368 384 368
WIRE 640 400 640 368
WIRE 832 400 832 352
WIRE -32 448 -32 368
WIRE 240 448 240 416
WIRE 240 448 -32 448
WIRE -32 464 -32 448
WIRE 240 480 240 448
WIRE 640 480 240 480
FLAG -352 -112 IN
FLAG -352 16 0
FLAG -32 464 0
FLAG 1264 272 0
FLAG 1264 176 OUT
FLAG 0 240 0
FLAG -96 0 0
FLAG -48 192 0
FLAG 832 400 0
FLAG 1056 320 0
FLAG 832 0 0
SYMBOL PowerProducts\\LT3652 240 128 R0
SYMATTR InstName U1
SYMBOL cap 448 -96 R0
SYMATTR InstName C1
SYMATTR Value 1
SYMBOL ind 1152 -64 R0
SYMATTR InstName L1
SYMATTR Value 10
SYMBOL res 1184 160 R180
WINDOW 0 36 76 Left 2
WINDOW 3 36 40 Left 2
SYMATTR InstName R1
SYMATTR Value 0.05
SYMBOL diode -368 -16 M180
WINDOW 0 30 57 Left 2
WINDOW 3 24 0 Left 2
SYMATTR InstName U2
SYMATTR Value PhotoCell
SYMATTR Prefix X
SYMBOL cap 816 176 R0
SYMATTR InstName C3
SYMATTR Value 100
SYMBOL res 656 352 R180
WINDOW 0 36 76 Left 2
WINDOW 3 36 40 Left 2
SYMATTR InstName R3
SYMATTR Value 316k
SYMBOL res 656 496 R180
WINDOW 0 36 76 Left 2
WINDOW 3 36 40 Left 2
SYMATTR InstName R4
SYMATTR Value 1.15Meg
SYMBOL cap 1248 192 R0
WINDOW 39 55 33 Left 2
SYMATTR SpiceLine Rser=0.15
SYMATTR InstName C4
SYMATTR Value 0.15m
SYMBOL diode 640 -32 R90
WINDOW 0 0 32 VBottom 2
WINDOW 3 32 32 VTop 2
SYMATTR InstName D2
SYMATTR Value 1N914
SYMBOL schottky 848 -48 R180
WINDOW 0 24 64 Left 2
WINDOW 3 24 0 Left 2
SYMATTR InstName D3
SYMATTR Value MBRS340
SYMATTR Description Diode
SYMATTR Type diode
SYMBOL res -16 -112 R0
SYMATTR InstName R5
SYMATTR Value 280k
SYMBOL res -16 96 R0
SYMATTR InstName R6
SYMATTR Value 100k
SYMBOL cap -112 -112 R0
SYMATTR InstName C2
SYMATTR Value 10
SYMBOL res -64 -16 R0
SYMATTR InstName R2
SYMATTR Value 787k
SYMBOL res -64 64 R0
SYMATTR InstName R7
SYMATTR Value 100k
SYMBOL res 816 256 R0
SYMATTR InstName R8
SYMATTR Value 0.1
SYMBOL cap 1040 192 R0
SYMATTR InstName C6
SYMATTR Value 10
SYMBOL schottky -272 -96 R270
WINDOW 0 32 32 VTop 2
WINDOW 3 0 32 VBottom 2
SYMATTR InstName D1
SYMATTR Value MBRS340
SYMATTR Description Diode
SYMATTR Type diode
TEXT -1000 8 Left 2 !.subckt PhotoCell B A\nC1 A B 1n\nV1 N001 B  PWL(0 0 3u 17.7)\nD1 N001 A S2\nR1 A N001 75\n.model S2 D(Ron=.1 Ilimit=1.2 epsilon=.5)\n.ends
TEXT 1232 328 Left 2 !.ic V(OUT)=3.0
TEXT -1000 488 Left 2 !.tran 3m
